@<TRIPOS>MOLECULE
A2
29 31 1 0 1
SMALL
USER_CHARGES
@<TRIPOS>ATOM
       1 C5'          2.1560     2.5518     2.0199 CI            1 A2         0.055800
       2 H5'          1.4527     1.7538     2.2578 H1            1 A2         0.067900
       3 H5''         1.6050     3.4500     1.7412 H1            1 A2         0.067900
       4 C4'          3.0083     2.8479     3.2432 CT            1 A2         0.106500
       5 H4'          2.4471     3.4774     3.9339 H1            1 A2         0.117400
       6 O4'          3.2281     1.6052     3.9772 OS            1 A2        -0.354800
       7 C1'          4.5586     1.1509     3.7775 CT            1 A2         0.039400
       8 H1'          5.0720     1.0953     4.7375 H2            1 A2         0.200700
       9 N9           4.5389    -0.2970     3.3157 N*            1 A2        -0.025100
      10 C8           4.3368    -0.8465     2.0770 C5            1 A2         0.200600
      11 H8           4.1524    -0.2072     1.2263 H5            1 A2         0.155300
      12 N7           4.4529    -2.1410     2.0491 NB            1 A2        -0.607300
      13 C5           4.7541    -2.4800     3.3630 CB            1 A2         0.051500
      14 C6           4.9980    -3.7082     3.9892 CA            1 A2         0.700900
      15 N6           4.9768    -4.8835     3.3459 N2            1 A2        -0.901900
      16 H61          5.1607    -5.7388     3.8506 H             1 A2         0.411500
      17 H62          4.7769    -4.9140     2.3564 H             1 A2         0.411500
      18 N1           5.2653    -3.6893     5.3022 NC            1 A2        -0.761500
      19 C2           5.2850    -2.5199     5.9353 CQ            1 A2         0.587500
      20 H2           5.4983    -2.4822     6.9933 H5            1 A2         0.047300
      21 N3           5.0727    -1.3085     5.4558 NC            1 A2        -0.699700
      22 C4           4.8061    -1.3564     4.1332 CB            1 A2         0.305300
      23 C3'          4.4156     3.3778     2.9613 CT            1 A2         0.202200
      24 H3'          4.4121     3.9415     2.0284 H1            1 A2         0.061500
      25 C2'          5.2304     2.0957     2.7794 CT            1 A2         0.067000
      26 H2'          5.6682     2.0813     1.7813 H1            1 A2         0.097200
      27 O2'          6.2730     2.0499     3.7571 OH            1 A2        -0.613900
      28 HO2'         6.7593     1.2352     3.6110 HO            1 A2         0.418600
      29 O3'          5.0299     4.1286     3.9983 OS            1 A2        -0.524600
@<TRIPOS>BOND
       1        1        2 1
       2        1        3 1
       3        1        4 1
       4        4        5 1
       5        4        6 1
       6        4       23 1
       7        6        7 1
       8        7        8 1
       9        7        9 1
      10        7       25 1
      11        9       10 1
      12        9       22 1
      13       10       11 1
      14       10       12 1
      15       12       13 1
      16       13       14 1
      17       13       22 1
      18       14       15 1
      19       14       18 1
      20       15       16 1
      21       15       17 1
      22       18       19 1
      23       19       20 1
      24       19       21 1
      25       21       22 1
      26       23       24 1
      27       23       25 1
      28       23       29 1
      29       25       26 1
      30       25       27 1
      31       27       28 1
@<TRIPOS>SUBSTRUCTURE
       1 A2              1 RESIDUE    0 **** ROOT      0
