@<TRIPOS>MOLECULE
A3
34 36 1 0 1
SMALL
USER_CHARGES
@<TRIPOS>ATOM
       1 P            2.3145     1.7767    -0.4784 P             1 A3         1.166200
       2 OP1          1.9334     3.0734    -1.0815 O2            1 A3        -0.776000
       3 OP2          3.1565     0.8718    -1.2925 O2            1 A3        -0.776000
       4 O5'          2.9944     2.1425     0.9230 OS            1 A3        -0.498900
       5 C5'          2.1560     2.5518     2.0199 CI            1 A3         0.055800
       6 H5'          1.4527     1.7538     2.2578 H1            1 A3         0.067900
       7 H5''         1.6050     3.4500     1.7412 H1            1 A3         0.067900
       8 C4'          3.0083     2.8479     3.2432 CT            1 A3         0.106500
       9 H4'          2.4471     3.4774     3.9339 H1            1 A3         0.117400
      10 O4'          3.2281     1.6052     3.9772 OS            1 A3        -0.354800
      11 C1'          4.5586     1.1509     3.7775 CT            1 A3         0.039400
      12 H1'          5.0720     1.0953     4.7375 H2            1 A3         0.200700
      13 N9           4.5389    -0.2970     3.3157 N*            1 A3        -0.025100
      14 C8           4.3368    -0.8465     2.0770 C5            1 A3         0.200600
      15 H8           4.1524    -0.2072     1.2263 H5            1 A3         0.155300
      16 N7           4.4529    -2.1410     2.0491 NB            1 A3        -0.607300
      17 C5           4.7541    -2.4800     3.3630 CB            1 A3         0.051500
      18 C6           4.9980    -3.7082     3.9892 CA            1 A3         0.700900
      19 N6           4.9768    -4.8835     3.3459 N2            1 A3        -0.901900
      20 H61          5.1607    -5.7388     3.8506 H             1 A3         0.411500
      21 H62          4.7769    -4.9140     2.3564 H             1 A3         0.411500
      22 N1           5.2653    -3.6893     5.3022 NC            1 A3        -0.761500
      23 C2           5.2850    -2.5199     5.9353 CQ            1 A3         0.587500
      24 H2           5.4983    -2.4822     6.9933 H5            1 A3         0.047300
      25 N3           5.0727    -1.3085     5.4558 NC            1 A3        -0.699700
      26 C4           4.8061    -1.3564     4.1332 CB            1 A3         0.305300
      27 C3'          4.4156     3.3778     2.9613 CT            1 A3         0.202200
      28 H3'          4.4121     3.9415     2.0284 H1            1 A3         0.061500
      29 C2'          5.2304     2.0957     2.7794 CT            1 A3         0.067000
      30 H2'          5.6682     2.0813     1.7813 H1            1 A3         0.097200
      31 O2'          6.2730     2.0499     3.7571 OH            1 A3        -0.613900
      32 HO2'         6.7593     1.2352     3.6110 HO            1 A3         0.418600
      33 O3'          5.0299     4.1286     3.9983 OH            1 A3        -0.654100
      34 HO3'         5.9120     4.4502     3.7979 HO            1 A3         0.437600
@<TRIPOS>BOND
       1        1        2 1
       2        1        3 1
       3        1        4 1
       4        4        5 1
       5        5        6 1
       6        5        7 1
       7        5        8 1
       8        8        9 1
       9        8       10 1
      10        8       27 1
      11       10       11 1
      12       11       12 1
      13       11       13 1
      14       11       29 1
      15       13       14 1
      16       13       26 1
      17       14       15 1
      18       14       16 1
      19       16       17 1
      20       17       18 1
      21       17       26 1
      22       18       19 1
      23       18       22 1
      24       19       20 1
      25       19       21 1
      26       22       23 1
      27       23       24 1
      28       23       25 1
      29       25       26 1
      30       27       28 1
      31       27       29 1
      32       27       33 1
      33       29       30 1
      34       29       31 1
      35       31       32 1
      36       33       34 1
@<TRIPOS>SUBSTRUCTURE
       1 A3              1 RESIDUE    0 **** ROOT      0
