@<TRIPOS>MOLECULE
AX2
29 31 1 0 1
SMALL
USER_CHARGES
@<TRIPOS>ATOM
       1 C4'        -28.9880   -11.3220     9.1790 CT            1 AX2        0.089900
       2 O4'        -30.1250   -11.6850     8.3640 OS            1 AX2       -0.381100
       3 C3'        -29.6050   -10.7970    10.4680 CT            1 AX2        0.199100
       4 O3'        -28.6650    -9.8620    11.0390 OS            1 AX2       -0.524600
       5 C2'        -30.8540   -10.0800     9.9540 CT            1 AX2        0.194000
       6 O2'        -30.5780    -8.7810     9.4390 OH            1 AX2       -0.681200
       7 C1'        -31.2860   -11.0060     8.8120 CT            1 AX2        0.371400
       8 N1         -36.2030   -11.5930     9.9910 NC            1 AX2       -0.792300
       9 C2         -35.4730   -10.5400     9.6360 CQ            1 AX2        0.555100
      10 N3         -34.1910   -10.4800     9.3290 NC            1 AX2       -0.729400
      11 C4         -33.6190   -11.7000     9.4130 CB            1 AX2        0.591000
      12 C5         -34.2470   -12.8590     9.7630 CB            1 AX2       -0.121600
      13 C6         -35.6110   -12.7930    10.0670 CA            1 AX2        0.809300
      14 N6         -36.3420   -13.8580    10.4240 N2            1 AX2       -0.966200
      15 N7         -33.3410   -13.9140     9.7400 NB            1 AX2       -0.561000
      16 C8         -32.2210   -13.3590     9.3830 CK            1 AX2        0.296800
      17 N9         -32.3140   -12.0090     9.1660 N*            1 AX2       -0.376100
      18 C01        -28.0460   -12.5290     9.3440 CT            1 AX2        0.110000
      19 H01        -31.2920   -13.9170     9.2670 H5            1 AX2        0.103800
      20 H02        -36.0090    -9.5920     9.5920 H5            1 AX2        0.062500
      21 H03        -27.8120   -12.9450     8.3630 H1            1 AX2        0.042900
      22 H05        -27.1250   -12.2070     9.8290 H1            1 AX2        0.042900
      23 H06        -28.3440   -10.5560     8.7470 H1            1 AX2        0.098000
      24 H07        -29.8370   -11.5430    11.2290 H1            1 AX2        0.044500
      25 H09        -31.5940    -9.9160    10.7370 H1            1 AX2        0.038600
      26 H10        -30.6060    -8.1400    10.1530 HO            1 AX2        0.455000
      27 H11        -31.7480   -10.3770     8.0510 H2            1 AX2        0.053200
      28 H12        -37.3240   -13.7500    10.6320 H             1 AX2        0.430100
      29 H13        -35.9100   -14.7690    10.4850 H             1 AX2        0.430100
@<TRIPOS>BOND
       1        1        2 1
       2        1        3 1
       3        1       18 1
       4        1       23 1
       5        2        7 1
       6        3        4 1
       7        3        5 1
       8        3       24 1
       9        5        6 1
      10        5        7 1
      11        5       25 1
      12        6       26 1
      13        7       17 1
      14        7       27 1
      15        8        9 1
      16        8       13 2
      17        9       10 2
      18        9       20 1
      19       10       11 1
      20       11       12 2
      21       11       17 1
      22       12       13 1
      23       12       15 1
      24       13       14 1
      25       14       28 1
      26       14       29 1
      27       15       16 2
      28       16       17 1
      29       16       19 1
      30       18       21 1
      31       18       22 1
@<TRIPOS>SUBSTRUCTURE
       1 AX2             1 RESIDUE    0 **** ROOT      0
