@<TRIPOS>MOLECULE
C23
28 29 1 0 1
SMALL
USER_CHARGES
@<TRIPOS>ATOM
       1 C5'          2.1560     2.5518     2.0199 CI            1 C23        0.055800
       2 H5'          1.4527     1.7538     2.2578 H1            1 C23        0.067900
       3 H5''         1.6050     3.4500     1.7412 H1            1 C23        0.067900
       4 C4'          3.0083     2.8479     3.2432 CT            1 C23        0.106500
       5 H4'          2.4471     3.4774     3.9339 H1            1 C23        0.117400
       6 O4'          3.2281     1.6052     3.9772 OS            1 C23       -0.354800
       7 C1'          4.5586     1.1509     3.7775 CT            1 C23        0.006600
       8 H1'          5.0720     1.0953     4.7375 H2            1 C23        0.202900
       9 N1           4.5006    -0.2680     3.3265 N*            1 C23       -0.048400
      10 C6           4.2582    -0.5822     2.0257 C4            1 C23        0.005300
      11 H6           4.1040     0.2028     1.3002 H4            1 C23        0.195800
      12 C5           4.2057    -1.8781     1.6163 C4            1 C23       -0.521500
      13 H5           4.0103    -2.1114     0.5696 HA            1 C23        0.192800
      14 C4           4.4162    -2.8808     2.6138 CA            1 C23        0.818500
      15 N4           4.3789    -4.1589     2.2859 N2            1 C23       -0.953000
      16 H41          4.5325    -4.8364     3.0191 H             1 C23        0.423400
      17 H42          4.2018    -4.4344     1.3305 H             1 C23        0.423400
      18 N3           4.6526    -2.5645     3.8838 NC            1 C23       -0.758400
      19 C2           4.7012    -1.2623     4.2732 C             1 C23        0.753800
      20 O2           4.9190    -0.9276     5.4472 O             1 C23       -0.625200
      21 C3'          4.4156     3.3778     2.9613 CT            1 C23        0.202200
      22 H3'          4.4121     3.9415     2.0284 H1            1 C23        0.061500
      23 C2'          5.2304     2.0957     2.7794 CT            1 C23        0.067000
      24 H2'          5.6682     2.0813     1.7813 H1            1 C23        0.097200
      25 O2'          6.2730     2.0499     3.7571 OH            1 C23       -0.613900
      26 HO2'         6.7593     1.2352     3.6110 HO            1 C23        0.418600
      27 O3'          5.0299     4.1286     3.9983 OH            1 C23       -0.654100
      28 HO3'         5.9120     4.4502     3.7979 HO            1 C23        0.437600
@<TRIPOS>BOND
       1        1        2 1
       2        1        3 1
       3        1        4 1
       4        4        5 1
       5        4        6 1
       6        4       21 1
       7        6        7 1
       8        7        8 1
       9        7        9 1
      10        7       23 1
      11        9       10 1
      12        9       19 1
      13       10       11 1
      14       10       12 1
      15       12       13 1
      16       12       14 1
      17       14       15 1
      18       14       18 1
      19       15       16 1
      20       15       17 1
      21       18       19 1
      22       19       20 1
      23       21       22 1
      24       21       23 1
      25       21       27 1
      26       23       24 1
      27       23       25 1
      28       25       26 1
      29       27       28 1
@<TRIPOS>SUBSTRUCTURE
       1 C23             1 RESIDUE    0 **** ROOT      0
