@<TRIPOS>MOLECULE
G23
31 33 1 0 1
SMALL
USER_CHARGES
@<TRIPOS>ATOM
       1 C5'          2.1560     2.5518     2.0199 CI            1 G23        0.055800
       2 H5'          1.4527     1.7538     2.2578 H1            1 G23        0.067900
       3 H5''         1.6050     3.4500     1.7412 H1            1 G23        0.067900
       4 C4'          3.0083     2.8479     3.2432 CT            1 G23        0.106500
       5 H4'          2.4471     3.4774     3.9339 H1            1 G23        0.117400
       6 O4'          3.2281     1.6052     3.9772 OS            1 G23       -0.354800
       7 C1'          4.5586     1.1509     3.7775 CT            1 G23        0.019100
       8 H1'          5.0720     1.0953     4.7375 H2            1 G23        0.200600
       9 N9           4.4995    -0.2679     3.3266 N*            1 G23        0.049200
      10 C8           4.2675    -0.7727     2.0633 CP            1 G23        0.137400
      11 H8           4.0963    -0.0999     1.2360 H5            1 G23        0.164000
      12 N7           4.2787    -2.0812     2.0020 NB            1 G23       -0.570900
      13 C5           4.5351    -2.4746     3.3103 CB            1 G23        0.174400
      14 C6           4.6650    -3.7721     3.8726 C             1 G23        0.477000
      15 O6           4.5781    -4.8655     3.3160 O             1 G23       -0.559700
      16 N1           4.9259    -3.7091     5.2466 NA            1 G23       -0.478700
      17 H1           5.0325    -4.5756     5.7343 H             1 G23        0.342400
      18 C2           5.0477    -2.5475     5.9816 CA            1 G23        0.765700
      19 N2           5.2993    -2.7024     7.2886 N2            1 G23       -0.967200
      20 H21          5.3967    -3.5739     7.7896 H             1 G23        0.436400
      21 H22          5.3812    -1.8573     7.8355 H             1 G23        0.436400
      22 N3           4.9278    -1.3329     5.4529 NC            1 G23       -0.632300
      23 C4           4.6740    -1.3765     4.1175 CB            1 G23        0.122200
      24 C3'          4.4156     3.3778     2.9613 CT            1 G23        0.202200
      25 H3'          4.4121     3.9415     2.0284 H1            1 G23        0.061500
      26 C2'          5.2304     2.0957     2.7794 CT            1 G23        0.067000
      27 H2'          5.6682     2.0813     1.7813 H1            1 G23        0.097200
      28 O2'          6.2730     2.0499     3.7571 OH            1 G23       -0.613900
      29 HO2'         6.7593     1.2352     3.6110 HO            1 G23        0.418600
      30 O3'          5.0299     4.1286     3.9983 OH            1 G23       -0.654100
      31 HO3'         5.9120     4.4502     3.7979 HO            1 G23        0.437600
@<TRIPOS>BOND
       1        1        2 1
       2        1        3 1
       3        1        4 1
       4        4        5 1
       5        4        6 1
       6        4       24 1
       7        6        7 1
       8        7        8 1
       9        7        9 1
      10        7       26 1
      11        9       10 1
      12        9       23 1
      13       10       11 1
      14       10       12 1
      15       12       13 1
      16       13       14 1
      17       13       23 1
      18       14       15 1
      19       14       16 1
      20       16       17 1
      21       16       18 1
      22       18       19 1
      23       18       22 1
      24       19       20 1
      25       19       21 1
      26       22       23 1
      27       24       25 1
      28       24       26 1
      29       24       30 1
      30       26       27 1
      31       26       28 1
      32       28       29 1
      33       30       31 1
@<TRIPOS>SUBSTRUCTURE
       1 G23             1 RESIDUE    0 **** ROOT      0
