@<TRIPOS>MOLECULE
G3
35 37 1 0 1
SMALL
USER_CHARGES
@<TRIPOS>ATOM
       1 P            2.3145     1.7767    -0.4784 P             1 G3         1.166200
       2 OP1          1.9334     3.0734    -1.0815 O2            1 G3        -0.776000
       3 OP2          3.1565     0.8718    -1.2925 O2            1 G3        -0.776000
       4 O5'          2.9944     2.1425     0.9230 OS            1 G3        -0.498900
       5 C5'          2.1560     2.5518     2.0199 CI            1 G3         0.055800
       6 H5'          1.4527     1.7538     2.2578 H1            1 G3         0.067900
       7 H5''         1.6050     3.4500     1.7412 H1            1 G3         0.067900
       8 C4'          3.0083     2.8479     3.2432 CT            1 G3         0.106500
       9 H4'          2.4471     3.4774     3.9339 H1            1 G3         0.117400
      10 O4'          3.2281     1.6052     3.9772 OS            1 G3        -0.354800
      11 C1'          4.5586     1.1509     3.7775 CT            1 G3         0.019100
      12 H1'          5.0720     1.0953     4.7375 H2            1 G3         0.200600
      13 N9           4.4995    -0.2679     3.3266 N*            1 G3         0.049200
      14 C8           4.2675    -0.7727     2.0633 CP            1 G3         0.137400
      15 H8           4.0963    -0.0999     1.2360 H5            1 G3         0.164000
      16 N7           4.2787    -2.0812     2.0020 NB            1 G3        -0.570900
      17 C5           4.5351    -2.4746     3.3103 CB            1 G3         0.174400
      18 C6           4.6650    -3.7721     3.8726 C             1 G3         0.477000
      19 O6           4.5781    -4.8655     3.3160 O             1 G3        -0.559700
      20 N1           4.9259    -3.7091     5.2466 NA            1 G3        -0.478700
      21 H1           5.0325    -4.5756     5.7343 H             1 G3         0.342400
      22 C2           5.0477    -2.5475     5.9816 CA            1 G3         0.765700
      23 N2           5.2993    -2.7024     7.2886 N2            1 G3        -0.967200
      24 H21          5.3967    -3.5739     7.7896 H             1 G3         0.436400
      25 H22          5.3812    -1.8573     7.8355 H             1 G3         0.436400
      26 N3           4.9278    -1.3329     5.4529 NC            1 G3        -0.632300
      27 C4           4.6740    -1.3765     4.1175 CB            1 G3         0.122200
      28 C3'          4.4156     3.3778     2.9613 CT            1 G3         0.202200
      29 H3'          4.4121     3.9415     2.0284 H1            1 G3         0.061500
      30 C2'          5.2304     2.0957     2.7794 CT            1 G3         0.067000
      31 H2'          5.6682     2.0813     1.7813 H1            1 G3         0.097200
      32 O2'          6.2730     2.0499     3.7571 OH            1 G3        -0.613900
      33 HO2'         6.7593     1.2352     3.6110 HO            1 G3         0.418600
      34 O3'          5.0299     4.1286     3.9983 OH            1 G3        -0.654100
      35 HO3'         5.9120     4.4502     3.7979 HO            1 G3         0.437600
@<TRIPOS>BOND
       1        1        2 1
       2        1        3 1
       3        1        4 1
       4        4        5 1
       5        5        6 1
       6        5        7 1
       7        5        8 1
       8        8        9 1
       9        8       10 1
      10        8       28 1
      11       10       11 1
      12       11       12 1
      13       11       13 1
      14       11       30 1
      15       13       14 1
      16       13       27 1
      17       14       15 1
      18       14       16 1
      19       16       17 1
      20       17       18 1
      21       17       27 1
      22       18       19 1
      23       18       20 1
      24       20       21 1
      25       20       22 1
      26       22       23 1
      27       22       26 1
      28       23       24 1
      29       23       25 1
      30       26       27 1
      31       28       29 1
      32       28       30 1
      33       28       34 1
      34       30       31 1
      35       30       32 1
      36       32       33 1
      37       34       35 1
@<TRIPOS>SUBSTRUCTURE
       1 G3              1 RESIDUE    0 **** ROOT      0
