@<TRIPOS>MOLECULE
U
30 31 1 0 1
SMALL
USER_CHARGES
@<TRIPOS>ATOM
       1 P            2.3145     1.7767    -0.4784 P             1 U          1.166200
       2 OP1          1.9334     3.0734    -1.0815 O2            1 U         -0.776000
       3 OP2          3.1565     0.8718    -1.2925 O2            1 U         -0.776000
       4 O5'          2.9944     2.1425     0.9230 OS            1 U         -0.498900
       5 C5'          2.1560     2.5518     2.0199 CI            1 U          0.055800
       6 H5'          1.4527     1.7538     2.2578 H1            1 U          0.067900
       7 H5''         1.6050     3.4500     1.7412 H1            1 U          0.067900
       8 C4'          3.0083     2.8479     3.2432 CT            1 U          0.106500
       9 H4'          2.4471     3.4774     3.9339 H1            1 U          0.117400
      10 O4'          3.2281     1.6052     3.9772 OS            1 U         -0.354800
      11 C1'          4.5586     1.1509     3.7775 CT            1 U          0.067400
      12 H1'          5.0720     1.0953     4.7375 H2            1 U          0.182400
      13 N1           4.5388    -0.3066     3.3126 N*            1 U          0.041800
      14 C6           4.3169    -0.6725     2.0112 CS            1 U         -0.112600
      15 H6           4.1454     0.0836     1.2593 H4            1 U          0.218800
      16 C5           4.3603    -1.9576     1.6340 CS            1 U         -0.363500
      17 H5           4.1807    -2.2264     0.5930 HA            1 U          0.181100
      18 C4           4.6427    -2.9970     2.5897 C             1 U          0.595200
      19 O4           4.7030    -4.1992     2.3367 O             1 U         -0.576100
      20 N3           4.8528    -2.5385     3.8743 NA            1 U         -0.354900
      21 H3           5.0704    -3.2891     4.6341 H             1 U          0.315400
      22 C2           4.8147    -1.2239     4.2923 C             1 U          0.468700
      23 O2           5.0147    -0.9150     5.4555 O             1 U         -0.547700
      24 C3'          4.4156     3.3778     2.9613 CT            1 U          0.202200
      25 H3'          4.4121     3.9415     2.0284 H1            1 U          0.061500
      26 C2'          5.2304     2.0957     2.7794 CT            1 U          0.067000
      27 H2'          5.6682     2.0813     1.7813 H1            1 U          0.097200
      28 O2'          6.2730     2.0499     3.7571 OH            1 U         -0.613900
      29 HO2'         6.7593     1.2352     3.6110 HO            1 U          0.418600
      30 O3'          5.0299     4.1286     3.9983 OS            1 U         -0.524600
@<TRIPOS>BOND
       1        1        2 1
       2        1        3 1
       3        1        4 1
       4        4        5 1
       5        5        6 1
       6        5        7 1
       7        5        8 1
       8        8        9 1
       9        8       10 1
      10        8       24 1
      11       10       11 1
      12       11       12 1
      13       11       13 1
      14       11       26 1
      15       13       14 1
      16       13       22 1
      17       14       15 1
      18       14       16 1
      19       16       17 1
      20       16       18 1
      21       18       19 1
      22       18       20 1
      23       20       21 1
      24       20       22 1
      25       22       23 1
      26       24       25 1
      27       24       26 1
      28       24       30 1
      29       26       27 1
      30       26       28 1
      31       28       29 1
@<TRIPOS>SUBSTRUCTURE
       1 U               1 RESIDUE    0 **** ROOT      0
